!!>>>>>>>>>>>>>>>>>>>>>>>>>>>>>>>>>>>>>>>>>>>>>>>>>>>>>>>>>>>>>>>>>>>>>>
!! NEMO/OCE :   Reference namelist_ref                                !!
!!>>>>>>>>>>>>>>>>>>>>>>>>>>>>>>>>>>>>>>>>>>>>>>>>>>>>>>>>>>>>>>>>>>>>>>
!! NEMO/OCE  :  1 - Domain & run manager (namrun, namcfg, namdom, namtsd, namcrs, namc1d, namc1d_uvd)
!! namelists    2 - Surface boundary (namsbc, namsbc_flx, namsbc_blk, namsbc_cpl,
!!                                    namsbc_sas, namtra_qsr, namsbc_rnf,
!!                                    namisf, namsbc_apr, 
!!                                    namsbc_ssr, namsbc_wave, namberg)
!!              3 - lateral boundary (namlbc, namagrif, nambdy, nambdy_tide)
!!              4 - top/bot boundary (namdrg, namdrg_top, namdrg_bot, nambbc, nambbl)
!!              5 - Tracer           (nameos, namtra_adv, namtra_ldf, namtra_eiv, namtra_dmp)
!!              6 - dynamics         (namdyn_adv, namdyn_vor, namdyn_hpg, namdyn_spg, namdyn_ldf)
!!              7 - Vertical physics (namzdf, namzdf_ric, namzdf_tke, namzdf_gls, namzdf_iwm)
!!              8 - diagnostics      (namnc4, namtrd, namspr, namflo, namhsb)
!!              9 - Obs & Assim      (namobs, nam_asminc)
!!             10 - miscellaneous    (nammpp, namctl, namsto)
!!>>>>>>>>>>>>>>>>>>>>>>>>>>>>>>>>>>>>>>>>>>>>>>>>>>>>>>>>>>>>>>>>>>>>>>

!!======================================================================
!!              ***  Domain & Run management namelists  ***           !!
!!                                                                    !!
!!   namrun       parameters of the run
!!   namdom       space and time domain
!!   namcfg       parameters of the configuration                       (default: user defined GYRE)
!!   namwad       Wetting and drying                                    (default: OFF)
!!   namtsd       data: temperature & salinity                          (default: OFF)
!!   namcrs       coarsened grid (for outputs and/or TOP)               (ln_crs =T)
!!   namc1d       1D configuration options                              (ln_c1d =T)
!!   namc1d_dyndmp 1D newtonian damping applied on currents             (ln_c1d =T)
!!   namc1d_uvd   1D data (currents)                                    (ln_c1d =T)
!!======================================================================
!
!-----------------------------------------------------------------------
&namrun        !   parameters of the run
!-----------------------------------------------------------------------
   nn_no       =       0   !  job number (no more used...)
   cn_exp      =  'AMU025_BM3' !  experience name
!   nn_it000    = 1 !  first time step
!   nn_itend    = 25920 !  last  time step (std 5475) 25920
   nn_it000    = 1 !  first time step
   nn_itend    = 103680 ! 360 ! 3000 ! 3000 !  last  time step (std 5475) 259200
   nn_date0    = 19790101  !  date at nit_0000 (format yyyymmdd) used if ln_rstart=F or (ln_rstart=T and nn_rstctl=0 or 1)
   ln_rstart   = .false.   !  start from rest (F) or from a restart file (T)
      cn_ocerst_in    = "AMU025_BM3_00000000_restart"   !  suffix of ocean restart name (input)
      cn_ocerst_indir = "."         !  directory from which to read input ocean restarts
      cn_ocerst_out   = "restart"   !  suffix of ocean restart name (output)
      cn_ocerst_outdir = "."        !  directory in which to write output ocean restarts
      nn_rstctl   =    2      !  restart control ==> activated only if ln_rstart=T
   nn_leapy    =       30

/
!-----------------------------------------------------------------------
&namdom        !   time and space domain
!-----------------------------------------------------------------------
   rn_Dt      = 1200.     !  time step for the dynamics and tracer
   ln_meshmask = .true.    !  =T create a mesh file
/
!-----------------------------------------------------------------------
&namcfg        !   parameters of the configuration                      (default: use namusr_def in namelist_cfg)
!-----------------------------------------------------------------------
   ln_read_cfg = .true.    !  (=T) read the domain configuration file
      !                    !  (=F) user defined configuration           (F => create/check namusr_def)
!      cn_domcfg = "domain_cfg_ASE025.L75"  ! domain configuration filename
      cn_domcfg = "domain_cfg_eAMUXL025.L121_noIcebergWall"  ! domain configuration filename
/
!-----------------------------------------------------------------------
&namtile        !   parameters of the tiling
!-----------------------------------------------------------------------
/
!-----------------------------------------------------------------------
&namtsd        !    Temperature & Salinity Data  (init/dmp)             (default: OFF)
!-----------------------------------------------------------------------
   !                       ! =T  read T-S fields for:
   ln_tsd_init = .true.          !  ocean initialisation
   ln_tsd_dmp  = .false.         !  T-S restoring   (see namtra_dmp)

   cn_dir      = './'      !  root directory for the T-S data location
   !___________!_____________________!___________________!___________!_____________!________!___________!__________________!__________!_______________!
   !           !  file name          ! frequency (hours) ! variable  ! time interp.!  clim  ! 'yearly'/ ! weights filename ! rotation ! land/sea mask !
   !           !                     !  (if <0  months)  !   name    !   (logical) !  (T/F) ! 'monthly' !                  ! pairing  !    filename   !
   sn_tem = 'istate_TS_eAMUXL025.L121_y1979m01.nc',       -12       , 'votemper',   .false.   , .true. , 'yearly'  ,    ''            ,    ''    ,    ''
   sn_sal = 'istate_TS_eAMUXL025.L121_y1979m01.nc',       -12       , 'vosaline',   .false.   , .true. , 'yearly'  ,    ''            ,    ''    ,    ''
/
!-----------------------------------------------------------------------
&namwad        !   Wetting and Drying (WaD)                             (default: OFF)
!-----------------------------------------------------------------------
/
!-----------------------------------------------------------------------
&namcrs        !   coarsened grid (for outputs and/or TOP)              (ln_crs =T)
!-----------------------------------------------------------------------
/
!-----------------------------------------------------------------------
&namc1d        !   1D configuration options                             (ln_c1d =T default: PAPA station)
!-----------------------------------------------------------------------
/
!-----------------------------------------------------------------------
&namc1d_dyndmp !   U & V newtonian damping                              (ln_c1d =T default: OFF)
!-----------------------------------------------------------------------
/
!-----------------------------------------------------------------------
&namc1d_uvd    !   data: U & V currents                                 (ln_c1d =T default: OFF)
!-----------------------------------------------------------------------
/

!!======================================================================
!!            ***  Surface Boundary Condition namelists  ***          !!
!!                                                                    !!
!!   namsbc          surface boundary condition manager                 (default: NO selection)
!!   namsbc_flx      flux               formulation                     (ln_flx     =T)
!!   namsbc_blk      Bulk formulae formulation                          (ln_blk     =T)
!!   namsbc_cpl      CouPLed            formulation                     ("key_oasis3" )
!!   namsbc_sas      Stand-Alone Surface module                         (SAS_SRC  only)
!!   namsbc_iif      Ice-IF: use observed ice cover                     (nn_ice = 1   )
!!   namtra_qsr      penetrative solar radiation                        (ln_traqsr  =T)
!!   namsbc_ssr      sea surface restoring term (for T and/or S)        (ln_ssr     =T)
!!   namsbc_rnf      river runoffs                                      (ln_rnf     =T)
!!   namsbc_apr      Atmospheric Pressure                               (ln_apr_dyn =T)
!!   namsbc_iscpl    coupling option between land ice model and ocean   (ln_isfcav  =T)
!!   namsbc_wave     external fields from wave model                    (ln_wave    =T)
!!   namberg         iceberg floats                                     (ln_icebergs=T)
!!======================================================================
!
!-----------------------------------------------------------------------
&namsbc        !   Surface Boundary Condition manager                   (default: NO selection)
!-----------------------------------------------------------------------
   nn_fsbc     = 1         !  frequency of surface boundary condition computation
      !                    !  (control sea-ice & iceberg model call)
                     ! Type of air-sea fluxes 
   ln_blk      = .true.    !  Bulk formulation                          (T => fill namsbc_blk )
                     ! Sea-ice :
   nn_ice      = 2         !  =0 no ice boundary condition
      !                    !  =1 use observed ice-cover                 (  => fill namsbc_iif )
      !                    !  =2 or 3 for SI3 and CICE, respectively
   ln_ice_embd = .false.   !  =T embedded sea-ice (pressure + mass and salt exchanges)
      !                    !  =F levitating ice (no pressure, mass and salt exchanges)
                     ! Misc. options of sbc : 
   ln_traqsr   = .true.    !  Light penetration in the ocean            (T => fill namtra_qsr)
   ln_dm2dc    = .false.   !  daily mean to diurnal cycle on short wave
   ln_ssr      = .false.   !  Sea Surface Restoring on T and/or S       (T => fill namsbc_ssr)
   nn_fwb      = 0         !  FreshWater Budget: =0 unchecked
      !                    !     =1 global mean of e-p-r set to zero at each time step
      !                    !     =2 annual global mean of e-p-r set to zero
   ln_rnf      = .true.    !  runoffs                                   (T   => fill namsbc_rnf)
/
!-----------------------------------------------------------------------
&namsbc_flx    !   surface boundary condition : flux formulation        (ln_flx =T)
!-----------------------------------------------------------------------
/
!-----------------------------------------------------------------------
&namsbc_blk    !   namsbc_blk  generic Bulk formula                     (ln_blk =T)
!-----------------------------------------------------------------------
   !                    !  bulk algorithm :
   ln_NCAR     = .true.     ! "NCAR"      algorithm   (Large and Yeager 2008)
   ln_COARE_3p0 = .false.   ! "COARE 3.0" algorithm   (Fairall et al. 2003)
   ln_COARE_3p6 = .false.   ! "COARE 3.6" algorithm   (Edson et al. 2013)
   ln_ECMWF     = .false.   ! "ECMWF"     algorithm   (IFS cycle 45r1)
   !
   cn_dir      = 'FRCs.d/'      !  root directory for the bulk data location
   !___________!_________________________!___________________!___________!_____________!________!___________!______________________________________!__________!_______________!
   !           !  file name              ! frequency (hours) ! variable  ! time interp.!  clim  ! 'yearly'/ !       weights filename               ! rotation ! land/sea mask !
   !           !                         !  (if <0  months)  !   name    !   (logical) !  (T/F) ! 'monthly' !                                      ! pairing  !    filename   !
   sn_wndi     = 'drowned_uas_JRA55'              ,         3         , 'uas' ,   .true.    , .false. , 'yearly'  , 'weights_bicub_JRA55_eAMUXL025.L121.nc'           , 'Uwnd'   , ''
   sn_wndj     = 'drowned_vas_JRA55'              ,         3         , 'vas' ,   .true.    , .false. , 'yearly'  , 'weights_bicub_JRA55_eAMUXL025.L121.nc'           , 'Vwnd'   , ''
   sn_qsr      = 'drowned_rsds_JRA55'             ,         3         , 'rsds'    ,   .true.    , .false. , 'yearly'  , 'weights_bilin_JRA55_eAMUXL025.L121.nc'             , ''       , ''
   sn_qlw      = 'drowned_rlds_JRA55'             ,         3         , 'rlds'    ,   .true.    , .false. , 'yearly'  , 'weights_bilin_JRA55_eAMUXL025.L121.nc'             , ''       , ''
   sn_tair     = 'drowned_tas_JRA55'              ,         3         , 'tas' ,   .true.    , .false. , 'yearly'  , 'weights_bilin_JRA55_eAMUXL025.L121.nc'             , ''       , ''
   sn_humi     = 'drowned_huss_JRA55'              ,         3         , 'huss',   .true.    , .false. , 'yearly'  , 'weights_bilin_JRA55_eAMUXL025.L121.nc'             , ''       , ''
   sn_prec     = 'drowned_tprecip_JRA55'           ,         3         , 'tprecip'    ,   .true.    , .false. , 'yearly'  , 'weights_bilin_JRA55_eAMUXL025.L121.nc'             , ''       , ''
   sn_snow     = 'drowned_prsn_JRA55'             ,         3         , 'prsn'    ,   .true.    , .false. , 'yearly'  , 'weights_bilin_JRA55_eAMUXL025.L121.nc'             , ''       , ''
   sn_slp      = 'drowned_psl_JRA55'              ,         3         , 'psl'     ,   .true.    , .false. , 'yearly'  , 'weights_bilin_JRA55_eAMUXL025.L121.nc'             , ''       , ''
/
!-----------------------------------------------------------------------
&namsbc_cpl    !   coupled ocean/atmosphere model                       ("key_oasis3")
!-----------------------------------------------------------------------
/
!-----------------------------------------------------------------------
&namsbc_sas    !   Stand-Alone Surface module: ocean data               (SAS_SRC  only)
!-----------------------------------------------------------------------
/
!-----------------------------------------------------------------------
&namsbc_iif    !   Ice-IF : use observed ice cover                      (nn_ice = 1)
!-----------------------------------------------------------------------
/
!-----------------------------------------------------------------------
&namtra_qsr    !   penetrative solar radiation                          (ln_traqsr =T)
!-----------------------------------------------------------------------
   !                       !  type of penetration                        (default: NO selection)
   ln_qsr_rgb  = .true.    !  RGB (Red-Green-Blue) light penetration
   !                       !  RGB & 2BD choices:
   nn_chldta   =     0     !  RGB : 2D Chl data (=1), 3D Chl data (=2) or cst value (=0)

   cn_dir      = './'      !  root directory for the chlorophyl data location
   !___________!_________________________!___________________!___________!_____________!________!___________!__________________!__________!_______________!
   !           !  file name              ! frequency (hours) ! variable  ! time interp.!  clim  ! 'yearly'/ ! weights filename ! rotation ! land/sea mask !
   !           !                         !  (if <0  months)  !   name    !   (logical) !  (T/F) ! 'monthly' !                  ! pairing  !    filename   !
   sn_chl      ='chlorophyll_eAMUXL025.L121'     ,        -1         , 'CHLA'    ,   .true.    , .true. , 'yearly'  , ''               , ''       , ''
/
!-----------------------------------------------------------------------
&namsbc_ssr    !   surface boundary condition : sea surface restoring   (ln_ssr =T)
!-----------------------------------------------------------------------
   cn_dir      = './SSS'      !  root directory
   sn_sss      = 'sss'
   nn_sssr     =     1     !  add a damping     term in the surface freshwater flux (=2)
      !                    !  or to SSS only (=1) or no damping term (=0)
      rn_deds     =  -166.67  !  magnitude of the damping on salinity   [mm/day]
      ln_sssr_bnd =  .true.   !  flag to bound erp term (associated with nn_sssr=2)
      rn_sssr_bnd =   4.e0    !  ABS(Max/Min) value of the damping erp term [mm/day]
/
!-----------------------------------------------------------------------
&namsbc_rnf    !   runoffs                                              (ln_rnf =T)
!-----------------------------------------------------------------------

   cn_dir      = './RNF/'      !  root directory for the runoff data location
   !___________!_________________________!___________________!___________!_____________!________!___________!__________________!__________!_______________!
   !           !  file name              ! frequency (hours) ! variable  ! time interp.!  clim  ! 'yearly'/ ! weights filename ! rotation ! land/sea mask !
   !           !                         !  (if <0  months)  !   name    !   (logical) !  (T/F) ! 'monthly' !                  ! pairing  !    filename   !
   sn_rnf      = 'runoff'         ,  -1               , 'runoff'  ,   .true.    , .false., 'yearly'  , ''               , ''       , ''
!   sn_i_rnf    = 'runoff'         ,  -1               , 'icb_melt',   .true.    , .false., 'yearly'  , ''               , ''       , ''
/
!-----------------------------------------------------------------------
&namsbc_apr    !   Atmospheric pressure used as ocean forcing           (ln_apr_dyn =T)
!-----------------------------------------------------------------------
/
!-----------------------------------------------------------------------
&namisf       !  Top boundary layer (ISF)                               (default: OFF)
!-----------------------------------------------------------------------
   !
   ! ---------------- ice shelf melt formulation -------------------------------
   !
   ln_isf = .true.            ! activate ice shelf module
      cn_isfdir = './'           ! directory for all ice shelf input file
      !
      ! ---------------- cavities opened -------------------------------
      !
      ln_isfcav_mlt = .true.     ! ice shelf melting into the cavity
         cn_isfcav_mlt = '3eq'   ! ice shelf melting formulation (spe/2eq/3eq/oasis)
         !                       ! spe = fwfisf is read from a forcing field
         !                       ! 2eq = ISOMIP  like: 2 equations formulation (Hunter et al., 2006 for a short description)
         !                       ! 3eq = ISOMIP+ like: 3 equations formulation (Asay-Davis et al., 2016 for a short description)
         !                       ! oasis = fwfisf is given by oasis and pattern by file sn_isfcav_fwf
         !              !  cn_isfcav_mlt = 2eq or 3eq cases:
         cn_gammablk = 'vel'     ! scheme to compute gammat/s (spe,ad15,hj99)
         !                       ! spe      = constant transfert velocity (rn_gammat0, rn_gammas0)
         !                       ! vel      = velocity dependent transfert velocity (u* * gammat/s) (Asay-Davis et al. 2016 for a short description)
         !                       ! vel_stab = velocity and stability dependent transfert coeficient (Holland et al. 1999 for a complete description)
         rn_gammat0  = 1.4e-2    ! gammat coefficient used in spe, vel and vel_stab gamma computation method
         rn_gammas0  = 4.0e-4    ! gammas coefficient used in spe, vel and vel_stab gamma computation method
         !
         rn_htbl     =  10.0      ! thickness of the top boundary layer    (Losh et al. 2008)
         !                       ! 0 => thickness of the tbl = thickness of the first wet cell
         !
         !* 'spe' and 'oasis' case
         !___________!_____________!___________________!___________!_____________!_________!___________!__________!__________!_______________!
         !           !  file name  ! frequency (hours) ! variable  ! time interp.!  clim   ! 'yearly'/ ! weights  ! rotation ! land/sea mask !
         !           !             !  (if <0  months)  !   name    !  (logical)  !  (T/F)  ! 'monthly' ! filename ! pairing  ! filename      !
         sn_isfcav_fwf = 'isfmlt_cav',      -12.      , 'fwflisf'  ,  .false.    , .true.  , 'yearly'  ,    ''    ,   ''     ,    ''
      !
      ! ---------------- cavities parametrised -------------------------------
      !
      ln_isfpar_mlt = .false.    ! ice shelf melting parametrised
         cn_isfpar_mlt = 'spe'  ! ice shelf melting parametrisation (spe/bg03/oasis)
         !                      ! spe   = fwfisf is read from a forcing field
         !                      ! bg03  = melt computed using Beckmann and Goosse parametrisation
         !                      ! oasis = fwfisf is given by oasis and pattern by file sn_isfpar_fwf
         !
         !* all cases
         !___________!_____________!___________________!___________!_____________!_________!___________!__________!__________!_______________!
         !           !  file name  ! frequency (hours) ! variable  ! time interp.!  clim   ! 'yearly'/ ! weights  ! rotation ! land/sea mask !
         !           !             !  (if <0  months)  !   name    !  (logical)  !  (T/F)  ! 'monthly' ! filename ! pairing  ! filename      !
         sn_isfpar_zmax = 'isfmlt_par',      -12.      , 'sozisfmax' ,  .false.    , .true.  , 'yearly'  ,    ''    ,   ''     ,    ''
         sn_isfpar_zmin = 'isfmlt_par',      -12.      , 'sozisfmin' ,  .false.    , .true.  , 'yearly'  ,    ''    ,   ''     ,    ''
         !* 'spe' and 'oasis' case
         sn_isfpar_fwf = 'isfmlt_par' ,      -12.      ,'sofwfisf' ,  .false.    , .true.  , 'yearly'   ,    ''    ,   ''     ,    ''
         !* 'bg03' case
         sn_isfpar_Leff = 'isfmlt_par',       0.       ,'Leff'     ,  .false.    , .true.  , 'yearly'   ,    ''    ,   ''     ,    ''
      !
      ! ---------------- ice sheet coupling -------------------------------
      !
      ln_isfcpl = .false.
         nn_drown       = 10        ! number of iteration of the extrapolation loop (fill the new wet cells)
         ln_isfcpl_cons = .false.
/
!-----------------------------------------------------------------------
&namsbc_wave   ! External fields from wave model                        (ln_wave=T)
!-----------------------------------------------------------------------
/
!-----------------------------------------------------------------------
&namberg       !   iceberg parameters                                   (default: OFF)
!-----------------------------------------------------------------------
!-----------------------------------------------------------------------
   ln_icebergs = .true.       ! activate iceberg floats (force =F with "key_agrif")
   !                          ! diagnostics:
   ln_bergdia        = .true.        ! Calculate budgets
   nn_verbose_level  = 0             ! Turn on more verbose output if level > 0
   nn_verbose_write  = 15            ! Timesteps between verbose messages
   nn_sample_rate    = 1             ! Timesteps between sampling for trajectory storage
   !
   !                          ! iceberg setting:
   !                                 ! Initial mass required for an iceberg of each class
   rn_initial_mass   = 8.8e7, 4.1e8, 3.3e9, 1.8e10, 3.8e10, 7.5e10, 1.2e11, 2.2e11, 3.9e11, 7.4e11
   !                                 ! Proportion of calving mass to apportion to each class
   rn_distribution   = 0.24, 0.12, 0.15, 0.18, 0.12, 0.07, 0.03, 0.03, 0.03, 0.02
   !                                 ! Ratio between effective and real iceberg mass (non-dim)
   !                                 ! i.e. number of icebergs represented at a point
   rn_mass_scaling   = 2000., 200., 50., 20., 10., 5., 2., 1., 1., 1.
                                     ! thickness of newly calved bergs (m)
   rn_initial_thickness     = 40., 67., 133., 175., 250., 250., 250., 250., 395., 100
   !
   rn_rho_bergs            = 875.     ! 1025.    ! Density of icebergs
   rn_LoW_ratio            = 1.5     ! Initial ratio L/W for newly calved icebergs
   ln_operator_splitting   = .true.  ! Use first order operator splitting for thermodynamics
   rn_bits_erosion_fraction = 0.     ! Fraction of erosion melt flux to divert to bergy bits
   rn_sicn_shift           = 0.      ! Shift of sea-ice concn in erosion flux (0<sicn_shift<1)
   ln_passive_mode         = .false. ! iceberg - ocean decoupling
   nn_test_icebergs        =  9     ! Create test icebergs of this class (-1 = no)
   !                                 ! Put a test iceberg at each gridpoint in box (lon1,lon2,lat1,lat2)
   rn_test_box             = -109.9,  -109.2, -73.91, -73.52
   !
   ln_M2016                = .true. ! use Merino et al. (2016) modification (use of 3d ocean data instead of only sea surface data)
      ln_icb_grd           = .true.
/

!!======================================================================
!!               ***  Lateral boundary condition  ***                 !!
!!                                                                    !!
!!   namlbc        lateral momentum boundary condition                  (default: NO selection)
!!   namagrif      agrif nested grid   (read by child model only)       ("key_agrif")
!!   nam_tide      Tidal forcing                                        (default: OFF)
!!   nambdy        Unstructured open boundaries                         (default: OFF)
!!   nambdy_dta    Unstructured open boundaries - external data         (see  nambdy)
!!   nambdy_tide   tidal forcing at open boundaries                     (default: OFF)
!!======================================================================
!
!-----------------------------------------------------------------------
&namlbc        !   lateral momentum boundary condition                  (default: NO selection)
!-----------------------------------------------------------------------
   !                       !  free slip  !   partial slip  !   no slip   ! strong slip
!   rn_shlat    =    2.     !  shlat = 0  !  0 < shlat < 2  !  shlat = 2  !  2 < shlat
   rn_shlat    =    2.     !  shlat = 0  !  0 < shlat < 2  !  shlat = 2  !  2 < shlat
/
!-----------------------------------------------------------------------
&namagrif      !  AGRIF zoom                                            ("key_agrif")
!-----------------------------------------------------------------------
/
!-----------------------------------------------------------------------
&nam_tide      !   tide parameters                                      (default: OFF)
!-----------------------------------------------------------------------
   ln_tide     = .false.       ! Activate tides
      ln_tide_pot   = .false.               !  use tidal potential forcing
      sn_tide_cnames(1) = 'M2'  !  name of constituent - all tidal components must be set in namelist_cfg
      sn_tide_cnames(2) = 'S2'
      sn_tide_cnames(3) = 'K1'
      sn_tide_cnames(4) = 'O1'
/
!-----------------------------------------------------------------------
&nambdy        !  unstructured open boundaries                          (default: OFF)
!-----------------------------------------------------------------------
   ln_bdy         = .true.    !  Use unstructured open boundaries
   nb_bdy         = 1         !  number of open boundary sets
  ln_coords_file = .true.    !  =T : read bdy coordinates from file
      cn_coords_file = 'coordinates_bdy_eAMUXL025.L121.nc' !'coordinates_bdy_ASE025.L75_10.nc' !  bdy coordinates files
   ln_mask_file   = .false.   !  =T : read mask from file
      cn_mask_file = ''        !  name of mask file (if ln_mask_file=.TRUE.)
   cn_dyn2d       = 'flather' !
   nn_dyn2d_dta   =  1        !  = 0, bdy data are equal to the initial state
      !                       !  = 1, bdy data are read in 'bdydata   .nc' files
      !                       !  = 2, use tidal harmonic forcing data from files
      !                       !  = 3, use external data AND tidal harmonic forcing
   cn_tra        =  'frs'     !
   nn_dyn3d_dta  =  1         !  = 0, bdy data are equal to the initial state
   !                          !  = 1, bdy data are read in 'bdydata   .nc' files
   cn_tra        =  'frs'     !
   nn_tra_dta    =  1         !  = 0, bdy data are equal to the initial state
   !                          !  = 1, bdy data are read in 'bdydata   .nc' files
   cn_ice        =  'frs'     !
   nn_ice_dta    =  1         !  = 0, bdy data are equal to the initial state
   !                          !  = 1, bdy data are read in 'bdydata   .nc' files
   !
   ln_tra_dmp    =.false.     !  open boudaries conditions for tracers
   ln_dyn3d_dmp  =.false.     !  open boundary condition for baroclinic velocities
   rn_time_dmp   =  1.        !  Damping time scale in days
   rn_time_dmp_out = 1.       !  Outflow damping time scale
   nn_rimwidth   = 1         !  width of the relaxation zone
   ln_vol        = .false.    !  total volume correction (see nn_volctl parameter)
   nn_volctl     =  1         !  = 0, the total water flux across open boundaries is zero


/
!-----------------------------------------------------------------------
&nambdy_dta    !  open boundaries - external data                       (see nam_bdy)
!-----------------------------------------------------------------------
!   ln_full_vel = .false.      !  ???
   ln_full_vel = .true.      !  ???

   cn_dir      = './BDY/'    !  root directory for the BDY data location
   !___________!_________________________!___________________!___________!_____________!________!___________!__________________!__________!_______________!
   !           !  file name              ! frequency (hours) ! variable  ! time interp.!  clim  ! 'yearly'/ ! weights filename ! rotation ! land/sea mask !
   !           !                         !  (if <0  months)  !   name    !   (logical) !  (T/F) ! 'monthly' !                  ! pairing  !    filename   !
   bn_ssh      =    'bdyT_ssh',             -1        , 'sossheig' ,     .true. , .false., 'yearly'  ,    ''            ,   ''     ,     ''
   bn_u2d      =    'bdyU_u2d'    ,         -1        , 'vobtcrtx' ,     .true. , .false., 'yearly'  ,    ''            ,   ''     ,     ''
   bn_v2d      =    'bdyV_u2d'    ,         -1        , 'vobtcrty' ,     .true. , .false., 'yearly'  ,    ''            ,   ''     ,     ''